/*--------------------------------*- C++ -*----------------------------------*\
| =========                 |                                                 |
| \\      /  F ield         | OpenFOAM: The Open Source CFD Toolbox           |
|  \\    /   O peration     | Version:  2306                                 |
|   \\  /    A nd           | Web:      www.OpenFOAM.org                      |
|    \\/     M anipulation  |                                                 |
\*---------------------------------------------------------------------------*/
FoamFile
{
    version     2.0;
    format      ascii;
    class       dictionary;
    object      blockMeshDict;
}
// * * * * * * * * * * * * * * * * * * * * * * * * * * * * * * * * * * * * * //

convertToMeters 1;

vertices
(
    (0 0 0)
    (1 0 0)
    (1 1 -0)
    (0 1 0)
    (0 0 1)
    (1 0 1)
    (1 1 1)
    (0 1 1)
);

blocks
(
    hex (0 1 2 3 4 5 6 7) (100 100 100) simpleGrading (1 1 1)
);

edges
(
    // No curved edges in this example
);

boundary
(    
    xmin
    {
        type wall;
        faces
        (
            (0 4 7 3)
        );
    }
    
    xmax
    {
        type wall;
        faces
        (
            (2 6 5 1)           
        );
    }
        
    ymin
    {
        type wall;
        faces
        (
            (1 5 4 0)
        );
    }
    
    ymax
    {
        type wall;
        faces
        (
            (3 7 6 2)
        );
    }
    zmin
    {
        type wall;
        faces
        (
            (0 3 2 1)
        );
    }
    
    zmax
    {
        type wall;
        faces
        (
            (4 5 6 7)
        );
    }
);

mergePatchPairs
(
    // No merge pairs in this example
);

// ************************************************************************* //
