/*--------------------------------*- C++ -*----------------------------------*\
| =========                 |                                                 |
| \\      /  F ield         | OpenFOAM: The Open Source CFD Toolbox           |
|  \\    /   O peration     | Version:  2306                                 |
|   \\  /    A nd           | Web:      www.OpenFOAM.org                      |
|    \\/     M anipulation  |                                                 |
\*---------------------------------------------------------------------------*/
FoamFile
{
    version     2.0;
    format      ascii;
    class       dictionary;
    object      setFieldsDict;
}
// * * * * * * * * * * * * * * * * * * * * * * * * * * * * * * * * * * * * * //

expressions
(
    set1
    {
        field T;
        keepPatches true;    
	      expression "2-1.5*pos().x+sin(3.14159*pos().x)";
          expression "2-1.5*pos().y+sin(3.14159*pos().y)";
          expression "2-1.5*pos().z+sin(3.14159*pos().z)";
    }
);
