/*--------------------------------*- C++ -*----------------------------------*\
| =========                 |                                                 |
| \\      /  F ield         | OpenFOAM: The Open Source CFD Toolbox           |
|  \\    /   O peration     | Version:  2306                                 |
|   \\  /    A nd           | Web:      www.OpenFOAM.org                      |
|    \\/     M anipulation  |                                                 |
\*---------------------------------------------------------------------------*/
FoamFile
{
    version     2.0;
    format      ascii;
    class       dictionary;
    object      fvSchemes;
}
// * * * * * * * * * * * * * * * * * * * * * * * * * * * * * * * * * * * * * //

ddtSchemes
{
    default         CrankNicolson 1;
}
gradSchemes
{
        default         Gauss none;
        default         cellMDLimited Gauss linear 1;
}
divSchemes
{
    default         none;
    div(phi,T)      Gauss SuperBee;
}
laplacianSchemes
{
    default         none;
    laplacian(DT,T) Gauss linear orthogonal;
}
interpolationSchemes
{
    default         linear;
}
snGradSchemes
{
    default         orthogonal;
}
fluxRequired
{
    default         no;
    T               ;
}

// ************************************************************************* //

