/*--------------------------------*- C++ -*----------------------------------*\
| =========                 |                                                 |
| \\      /  F ield         | OpenFOAM: The Open Source CFD Toolbox           |
|  \\    /   O peration     | Version:  3.0.x                                 |
|   \\  /    A nd           | Web:      www.OpenFOAM.org                      |
|    \\/     M anipulation  |                                                 |
\*---------------------------------------------------------------------------*/
FoamFile
{
    version     2.0;
    format      ascii;
    class       volScalarField;
    location    "0";
    object      T;
}

FoamFile
{
    version     2.0;
    format      ascii;
    class       volScalarField;
    location    "0";
    object      T;
}

FoamFile
{
    version     2.0;
    format      ascii;
    class       volScalarField;
    location    "0";
    object      T;
}

dimensions      [0 0 0 1 0 0 0];  // Adjust units if necessary based on your setup

internalField   uniform 0;  // Initial placeholder value; funkySetFields will update this

boundaryField
{
    inlet
    {
        type            fixedValue;
        value           uniform 0;  // Adjust based on your boundary conditions, or set as needed
    }

    outlet
    {
        type            zeroGradient;
    }

    frontAndBack
    {
        type            zeroGradient;  // Adjust if specific boundary conditions are required
    }

    topAndBottom
    {
        type            zeroGradient;  // Adjust based on your boundary conditions
    }
}




// ************************************************************************* //
