/*--------------------------------*- C++ -*----------------------------------*\
| =========                 |                                                 |
| \\      /  F ield         | OpenFOAM: The Open Source CFD Toolbox           |
|  \\    /   O peration     | Version:  2306                                  |
|   \\  /    A nd           | Website:  www.openfoam.com                      |
|    \\/     M anipulation  |                                                 |
\*---------------------------------------------------------------------------*/
FoamFile
{
    version     2.0;
    format      ascii;
    arch        "LSB;label=32;scalar=64";
    class       polyBoundaryMesh;
    location    "constant/polyMesh";
    object      boundary;
}
// * * * * * * * * * * * * * * * * * * * * * * * * * * * * * * * * * * * * * //

5
(
    xmin
    {
        type            cyclic;
        inGroups        1(cyclic);
        nFaces          200;
        startFace       79600;
        matchTolerance  0.0001;
        transform       unknown;
        neighbourPatch  xmax;
    }
    xmax
    {
        type            cyclic;
        inGroups        1(cyclic);
        nFaces          200;
        startFace       79800;
        matchTolerance  0.0001;
        transform       unknown;
        neighbourPatch  xmin;
    }
    ymin
    {
        type            patch;
        nFaces          200;
        startFace       80000;
    }
    ymax
    {
        type            patch;
        nFaces          200;
        startFace       80200;
    }
    frontAndBack
    {
        type            empty;
        inGroups        1(empty);
        nFaces          80000;
        startFace       80400;
    }
)

// ************************************************************************* //
